/*--------------------------------*- C++ -*----------------------------------*\
  =========                 |
  \\      /  F ield         | OpenFOAM: The Open Source CFD Toolbox
   \\    /   O peration     | Website:  https://openfoam.org
    \\  /    A nd           | Version:  12
     \\/     M anipulation  |
\*---------------------------------------------------------------------------*/
/*   Windows 32 and 64 bit porting by blueCAPE: http://www.bluecape.com.pt   *\
|  Based on Windows porting (2.0.x v4) by Symscape: http://www.symscape.com   |
\*---------------------------------------------------------------------------*/
FoamFile
{
    format      ascii;
    class       polyBoundaryMesh;
    location    "constant/polyMesh";
    object      boundary;
}
// * * * * * * * * * * * * * * * * * * * * * * * * * * * * * * * * * * * * * //

4
(
    ceiling
    {
        type            wall;
        inGroups        List<word> 1(wall);
        nFaces          1484;
        startFace       100160;
    }
    walls
    {
        type            wall;
        inGroups        List<word> 1(wall);
        nFaces          4980;
        startFace       101644;
    }
    outlet
    {
        type            patch;
        nFaces          16;
        startFace       106624;
    }
    inlet
    {
        type            patch;
        nFaces          200;
        startFace       106640;
    }
)

// ************************************************************************* //
